input/WSCC9busPsse30.raw
 0, 100.0/RAWD VER 30 EXPORT BY PSAT


       1,'Bus1        ',  16.50,3,          0.000,          0.000,   1,   1,1.04000,   0.0000,   1,/* [                                ] */
       2,'Bus 2       ',  18.00,2,          0.000,          0.000,   1,   1,1.02500,   9.3507,   1,/* [                                ] */
       3,'Bus 3       ',  13.80,2,          0.000,          0.000,   1,   1,1.02500,   5.1420,   1,/* [                                ] */
       4,'Bus 4       ', 230.00,1,          0.000,          0.000,   1,   1,1.02531,  -2.2174,   1,/* [                                ] */
       5,'Bus 5       ', 230.00,1,          0.000,          0.000,   1,   1,0.99972,  -3.6802,   1,/* [                                ] */
       6,'Bus 6       ', 230.00,1,          0.000,          0.000,   1,   1,1.01225,  -3.5666,   1,/* [                                ] */
       7,'Bus 7       ', 230.00,1,          0.000,          0.000,   1,   1,1.02683,   3.7961,   1,/* [                                ] */
       8,'Bus 8       ', 230.00,1,          0.000,          0.000,   1,   1,1.01727,   1.3373,   1,/* [                                ] */
       9,'Bus 9       ', 230.00,1,          0.000,          0.000,   1,   1,1.03269,   2.4448,   1,/* [                                ] */
0 / END OF BUS DATA, BEGIN LOAD DATA
     5,'1 ',1,   1,   1,   125.000,    50.000,     0.000,     0.000,     0.000,     0.000,   1,/* [                                ] */
     6,'1 ',1,   1,   1,    90.000,    30.000,     0.000,     0.000,     0.000,     0.000,   1,/* [                                ] */
     8,'1 ',1,   1,   1,   100.000,    35.000,     0.000,     0.000,     0.000,     0.000,   1,/* [                                ] */
0 / END OF LOAD DATA, BEGIN GENERATOR DATA
     1,'1 ',    71.63,    27.92,  9900.00, -9900.00,1.04000,     0,   500.00,      0.00000,      1.00000,      0.00000,      0.00000,1.00000,1,  100.0,   450.00,     0.00,   1,1.0000,,,,,,,,/* [                                ] */
     2,'1 ',   163.00,     4.90,  9900.00, -9900.00,1.02500,     0,   250.00,      0.00000,      1.00000,      0.00000,      0.00000,1.00000,1,  100.0,   240.00,     0.00,   1,1.0000,,,,,,,,/* [                                ] */
     3,'1 ',    85.00,   -11.45,  9900.00, -9900.00,1.02500,     0,   100.00,      0.00000,      1.00000,      0.00000,      0.00000,1.00000,1,  100.0,    90.00,     0.00,   1,1.0000,,,,,,,,/* [                                ] */
 0 / END OF GENERATOR DATA, BEGIN BRANCH DATA
       5,       4,'1 ',    0.10000E-01,    0.68000E-01,    0.17600    ,    0.00,    0.00,    0.00,  0.00000,  0.00000,  0.00000,  0.00000,1,   0.00,   1,1.0000,,,,,,,,/* [                                ] */
       6,       4,'1 ',    0.17000E-01,    0.92000E-01,    0.15800    ,    0.00,    0.00,    0.00,  0.00000,  0.00000,  0.00000,  0.00000,1,   0.00,   1,1.0000,,,,,,,,/* [                                ] */
       7,       5,'1 ',    0.32000E-01,    0.16100    ,    0.30600    ,    0.00,    0.00,    0.00,  0.00000,  0.00000,  0.00000,  0.00000,1,   0.00,   1,1.0000,,,,,,,,/* [                                ] */
       9,       6,'1 ',    0.39000E-01,    0.17380    ,    0.35800    ,    0.00,    0.00,    0.00,  0.00000,  0.00000,  0.00000,  0.00000,1,   0.00,   1,1.0000,,,,,,,,/* [                                ] */
       7,       8,'1 ',    0.85000E-02,    0.57600E-01,    0.14900    ,    0.00,    0.00,    0.00,  0.00000,  0.00000,  0.00000,  0.00000,1,   0.00,   1,1.0000,,,,,,,,/* [                                ] */
       8,       9,'1 ',    0.11900E-01,    0.10080    ,    0.20900    ,    0.00,    0.00,    0.00,  0.00000,  0.00000,  0.00000,  0.00000,1,   0.00,   1,1.0000,,,,,,,,/* [                                ] */
0 / END OF BRANCH DATA, BEGIN TRANSFORMER DATA
       4,       1, 0,'1 ',1,1,1,   0.00000,   0.00000, 2,'', 1,   1,1.0000,,,,,,,
   0.00000,   0.05760
1.00000, 0,   0.000,    0.00,    0.00,    0.00,-1,       0,     1.1000    ,    0.90000    ,     1.5000    ,    0.50000    ,159,  0, 0., 0.
 1.00000, 0.,/* [                                ] */
       2,       7, 0,'1 ',1,1,1,   0.00000,   0.00000, 2,'', 1,   1,1.0000,,,,,,,
   0.00000,   0.06250
1.00000, 0,   0.000,    0.00,    0.00,    0.00,-1,       2,     1.1000    ,    0.90000    ,     1.5000    ,    0.50000    , 33,  0, 0., 0.
 1.00000, 0.,/* [                                ] */
       9,       3, 0,'1 ',1,1,1,   0.00000,   0.00000, 2,'', 1,   1,1.0000,,,,,,,
   0.00000,   0.05860
1.00000, 0,   0.000,    0.00,    0.00,    0.00,-1,       9,     1.1000    ,    0.90000    ,     1.5000    ,    0.50000    , 33,  0, 0., 0.
 1.00000, 0.,/* [                                ] */
0 / END OF TRANSFORMER DATA, BEGIN AREA DATA
    1,     0,     0.00,     1.00,'1           '
0 / END OF AREA DATA, BEGIN TWO-TERMINAL DC DATA
0 / END OF TWO-TERMINAL DC DATA, BEGIN VSC DC LINE DATA
0 / END OF VSC DC LINE DATA, BEGIN SWITCHED SHUNT DATA
 0 / END SWITCHED SHUNT DATA, BEGIN IMPEDANCE CORRECTION TABLE DATA
0 / END OF IMPEDANCE CORRECTION TABLE DATA, BEGIN MULTI-TERMINAL DC DATA
0 / END OF MULTI-TERMINAL DC DATA, BEGIN MULTI-SECTION LINE DATA
0 / END OF MULTI-SECTION LINE DATA, BEGIN ZONE DATA
    1,'1           '
0 / END OF ZONE DATA, BEGIN INTER-AREA TRANSFER DATA
0 / END OF INTER-AREA TRANSFER DATA, BEGIN OWNER DATA
   1, '1           '
0 / END OF OWNER DATA, BEGIN FACTS DEVICE DATA
0 / END OF FACTS DATA
 0 /
